/*--------------------------------*- C++ -*----------------------------------*\
  =========                 |
  \\      /  F ield         | OpenFOAM: The Open Source CFD Toolbox
   \\    /   O peration     | Website:  https://openfoam.org
    \\  /    A nd           | Version:  12
     \\/     M anipulation  |
\*---------------------------------------------------------------------------*/
FoamFile
{
    format      binary;
    class       polyBoundaryMesh;
    location    "3/polyMesh";
    object      boundary;
}
// * * * * * * * * * * * * * * * * * * * * * * * * * * * * * * * * * * * * * //

7
(
    front
    {
        type            symmetryPlane;
        inGroups        List<word> 1(symmetryPlane);
        nFaces          417;
        startFace       2709221;
    }
    back
    {
        type            symmetryPlane;
        inGroups        List<word> 1(symmetryPlane);
        nFaces          417;
        startFace       2709638;
    }
    inlet
    {
        type            patch;
        nFaces          72;
        startFace       2710055;
    }
    outlet
    {
        type            patch;
        nFaces          72;
        startFace       2710127;
    }
    lowerWall
    {
        type            wall;
        inGroups        List<word> 1(wall);
        nFaces          10274;
        startFace       2710199;
    }
    upperWall
    {
        type            symmetryPlane;
        inGroups        List<word> 1(symmetryPlane);
        nFaces          200;
        startFace       2720473;
    }
    ahmed
    {
        type            wall;
        inGroups        List<word> 1(wall);
        nFaces          29108;
        startFace       2720673;
    }
)

// ************************************************************************* //
